          19
 idd
Ni          0.83598900     -1.17190200      0.00023700
Ni         -1.45599000      0.00052100     -0.00022000
Ni          0.83903200      1.17050000     -0.00013700
C           1.84494500      2.65086900     -0.00046900
O           2.50032200      3.58514200     -0.00063200
C           1.84301200     -2.65147200      0.00101800
O           2.49886400     -3.58543000      0.00141100
C           1.41346800      0.00067700     -1.49369900
O           1.82736800     -0.00409300     -2.56604300
C          -0.95283000     -1.90455600     -0.00077300
O          -1.47143300     -2.93899400     -0.00164200
C          -2.44732100      0.00203800     -1.54360200
O          -3.13208700      0.00284700     -2.45546700
C           1.41182600      0.00182100      1.49449300
O           1.82389700     -0.00254900      2.56753300
C          -0.94948300      1.90508800      0.00048400
O          -1.46672500      2.94016900      0.00127000
C          -2.44812500      0.00133400      1.54253800
O          -3.13343600      0.00164300      2.45400000
